%chk=TS_Si44Ge_F2
%chk=TS_Si44Ge_F2
%chk=TS_Si44Ge_F2
%chk=TS_Si44Ge_F2 
%nprocshared=16
%mem=8gb
#p B3LYP/lanl2dz Stable=Opt nosymm 

 Si(111) + F2

0 3 
1       -0.320212000      8.731754000      7.157514000
1       -0.157012000      5.986396000      9.857912000
1       -1.441240000      2.885543000     11.276152000
1      -11.949835000      3.004450000      2.032509000
1      -10.648390000      6.088856000      0.584662000
1       -7.923287000      8.794439000      0.446599000
14      -1.371407000      5.227151000      3.595786000
14      -4.289192000      5.244355000      1.034211000
14      -1.174303000      2.480272000      6.291520000
14      -4.131424000      2.492624000      3.767373000
14      -7.029292000      2.528633000      1.146176000
14      -2.641937000      3.831257000      5.026481000
14      -5.568151000      3.847877000      2.460561000
14      -2.833728000      6.573537000      2.329309000
14       1.559671000      5.199515000      6.151581000
14       0.095888000      6.546358000      4.890975000
14       0.279169000      3.823999000      7.569960000
14      -2.444290000      1.075954000      7.677135000
32      -5.389722000      1.047363000      5.183840000
14      -8.288717000      1.140132000      2.570373000
14      -3.854244000     -0.308049000      6.375815000
14      -6.811531000     -0.231808000      3.780981000
14      -8.455051000      3.901213000     -0.135349000
14      -5.740716000      6.592443000     -0.249403000
14      -7.185224000      5.276885000     -1.563887000
14      -3.742597000      2.386079000      9.167493000
14      -1.042721000      5.113907000      9.036888000
14      -6.697274000      2.395859000      6.667183000
14      -9.572234000      2.474067000      4.045570000
14      -9.732801000      5.205750000      1.360383000
14      -6.991706000      7.936916000      1.232868000
14      -1.217449000      7.882893000      6.323943000
14      -3.945083000      5.168396000      6.491127000
14      -4.107792000      7.937501000      3.780823000
14      -6.850344000      5.196518000      3.934617000
14      -5.230163000      3.771171000      7.940542000
14      -8.134072000      3.801264000      5.387064000
14      -2.337898000      3.766224000     10.482124000
14      -2.489294000      6.524093000      7.796458000
14      -2.678483000      9.278213000      5.105564000
14      -5.398162000      6.558757000      5.228429000
14      -5.587751000      9.306735000      2.543981000
14      -8.312923000      6.582771000      2.665848000
14      -5.058539000      1.046152000     10.607134000
14      -7.953849000      0.879685000      8.124220000
14     -10.840619000      1.131701000      5.512127000
14      -6.362175000     -0.469869000      9.323329000
14      -9.428901000     -0.347866000      6.691238000
14      -4.772443000     -1.685069000      8.046020000
14      -7.990807000     -1.563633000      5.283299000
14     -11.031707000      3.874525000      2.814955000
1      -12.037433672      0.249632107      4.658246004
1      -10.413537000     -1.469954000      7.500823000
1       -7.137363000     -1.555857000     10.373658000
1       -3.973373000      0.187846000     11.610540000
1       -4.782463000     10.182443000      1.646811000
1       -1.887024000     10.153545000      4.195627000
9        2.427535791      4.311350038      5.190917841
9       -0.550292537      4.300703056      2.630195380
9       -3.452151409      4.314533346      0.085688601
9       -6.355943722      4.382911802     -2.552828931
9       -0.347544497      1.597326036      5.290631993
9       -3.076411996      2.213217983      2.638753512
9       -6.165262531      1.615637168      0.205542337
9       -3.013938242     -1.136473742      5.340199879
9       -5.949200003     -1.135513104      2.829875151
9       -4.956965433     -3.220111977      7.773083138
9       -8.578283471     -2.893580738      4.690837685
9       -6.879251899     -2.007286784      6.299427228
9       -3.581683690     -1.730371669      9.068243036
9        2.519689998      6.111785313      6.994804814
9        1.216762394      2.889062072      8.413589995
9       -1.483506632      0.169518671      8.525763490
9        0.906073130      7.486098354      3.929004043
9       -2.005757661      7.507740516      1.377138370
9       -4.880646496      7.530346324     -1.168923420
9       -8.139563664      6.199955360     -2.401787302
9       -9.423892809      2.985687502     -0.964841984
9       -9.263803176      0.230509184      1.741703414
9       -3.912096876     -0.273018771      3.521143437
9       -3.300341205     -1.845609146      2.906754311
1       -8.792651912      1.527743517      9.157094549
1       -8.927303447      4.628506880      6.323468340
1       -9.136610007      7.433761491      3.553403575
1       -6.195727683      7.407334714      6.141777151
1       -6.032450559      4.608882400      8.859766827
1       -3.256171619      7.378707032      8.730231834
1      -11.610942040      2.047591621      6.382843247
1       -5.880972981      1.876461098     11.515202912
1       -2.843070766      4.352266279     11.743771702
1       -6.230165674     10.343851452      3.381890810
1       -3.314300647     10.358739096      5.892074824
1      -11.881621206      4.653499875      3.742987320

--link1-- 
%chk=TS_Si44Ge_F2
%chk=TS_Si44Ge_F2
%chk=TS_Si44Ge_F2
%chk=TS_Si44Ge_F2 
%nprocshared=16
%mem=8gb
#p B3LYP/lanl2dz Stable=Opt nosymm Geom=Check Guess=Read 

 Si(111) + F2

0 1 
               
--link1-- 
%chk=TS_Si44Ge_F2
%chk=TS_Si44Ge_F2
%chk=TS_Si44Ge_F2
%chk=TS_Si44Ge_F2 
%nprocshared=16
%mem=8gb
#p B3LYP/lanl2dz Freq nosymm Geom=Check Guess=Read 

 Si(111) + F2

0 1 

--link1-- 
%chk=TS_Si44Ge_F2
%chk=TS_Si44Ge_F2
%chk=TS_Si44Ge_F2
%chk=TS_Si44Ge_F2 
%nprocshared=16
%mem=8gb
#p B3LYP/lanl2dz Opt(ts,noeigentest,rcfc,maxstep=5) Freq nosymm Geom=Check Guess=Read pop=npa 

 Si(111) + F2

0 1 

